Circuit: * C:\Users\dunae\Documents\INSA\3A\BE_CHTI\adaptateur_adc.asc

Direct Newton iteration failed to find .op point.  (Use ".option noopiter" to skip.)
Starting Gmin stepping
Gmin = 10
Gmin = 1.07374
vernier = 0.5
vernier = 0.25
vernier = 0.125
vernier = 0.0625
Gmin = 1.08884
vernier = 0.03125
vernier = 0.015625
Gmin = 1.03122
vernier = 0.0078125
vernier = 0.0104167
vernier = 0.00520833
Gmin = 1.01724
vernier = 0.00260417
vernier = 0.00347222
Gmin = 1.01042
vernier = 0.00173611
vernier = 0.00231481
vernier = 0.00115741
Gmin = 1.00852
vernier = 0.00154321
vernier = 0.000771604
Gmin = 1.00667
vernier = 0.00102881
vernier = 0.000514403
vernier = 0.00068587
Gmin = 1.00542
vernier = 0.000514403
vernier = 0.00068587
vernier = 0.000514402
Gmin = 1.00461
Gmin = 0
Gmin stepping failed

Starting source stepping with srcstepmethod=0
Source Step = 3.0303%
Source Step = 18.1937%
vernier = 0.000976563
Source Step = 18.2114%
Source Step = 18.241%
Source Step = 18.2706%
Source Step = 18.3002%
Source Step = 18.3298%
vernier = 0.00146484
Source Step = 18.3697%
Source Step = 18.4141%
Source Step = 18.4585%
Source Step = 18.5029%
Source Step = 18.5473%
vernier = 0.00219727
Source Step = 18.605%
Source Step = 18.6716%
Source Step = 18.7382%
Source Step = 18.8047%
Source Step = 18.8713%
vernier = 0.0032959
Source Step = 18.9546%
Source Step = 19.0544%
Source Step = 19.1543%
Source Step = 19.2542%
Source Step = 19.3541%
vernier = 0.00494385
Source Step = 19.4739%
Source Step = 19.6237%
Source Step = 19.7735%
Source Step = 19.9234%
Source Step = 20.0732%
vernier = 0.00741577
Source Step = 20.2455%
Source Step = 20.4702%
Source Step = 20.6949%
Source Step = 20.9196%
Source Step = 21.1443%
vernier = 0.0111237
Source Step = 21.3915%
Source Step = 21.7286%
Source Step = 22.0657%
Source Step = 22.4028%
Source Step = 22.7398%
vernier = 0.0166855
Source Step = 23.0938%
Source Step = 23.5994%
Source Step = 24.105%
Source Step = 24.6106%
Source Step = 25.1163%
Source Step = 25.6219%
vernier = 0.0250282
Source Step = 26.3803%
Source Step = 27.1388%
Source Step = 27.8972%
Source Step = 28.6556%
Source Step = 29.414%
vernier = 0.0375423
Source Step = 30.5138%
Source Step = 31.6514%
Source Step = 32.7891%
Source Step = 33.9267%
Source Step = 35.0644%
vernier = 0.0563135
Source Step = 36.6571%
Source Step = 38.3635%
Source Step = 40.07%
Source Step = 41.7765%
Source Step = 43.4829%
vernier = 0.0844703
Source Step = 45.7867%
Source Step = 48.3464%
Source Step = 50.9061%
Source Step = 53.4658%
Source Step = 56.0255%
vernier = 0.126705
Source Step = 59.3531%
Source Step = 63.1927%
Source Step = 67.0322%
Source Step = 70.8718%
Source Step = 74.7113%
vernier = 0.190058
Source Step = 79.5108%
Source Step = 85.2701%
Source Step = 91.0295%
Source Step = 96.7888%
Source Step = 100%
Source stepping succeeded in finding the operating point.


Date: Fri Mar 04 11:09:47 2022
Total elapsed time: 1.372 seconds.

tnom = 27
temp = 27
method = modified trap
totiter = 13871
traniter = 4880
tranpoints = 2420
accept = 2074
rejected = 346
matrix size = 23
fillins = 40
solver = Normal
Thread vector: 100.2/32.7[2] 2.8/3.2[1] 1.4/4.7[1] 0.8/5.2[1]  2592/500
Matrix Compiler1: 2.40 KB object code size  0.7/0.4/[0.2]
Matrix Compiler2: 3.03 KB object code size  1.7/2.0/[1.5]

