Circuit: * C:\Users\dunae\Documents\INSA\3A\BE_Laser\LTSpice\adaptation_d_impedance_seule.asc

Direct Newton iteration failed to find .op point.  (Use ".option noopiter" to skip.)
Starting Gmin stepping
Gmin = 10
Gmin = 1.07374
vernier = 0.5
vernier = 0.25
vernier = 0.125
vernier = 0.0625
Gmin = 1.08884
vernier = 0.03125
vernier = 0.015625
Gmin = 1.03122
vernier = 0.0078125
vernier = 0.0104167
vernier = 0.00520833
Gmin = 1.01724
vernier = 0.00260417
vernier = 0.00347222
Gmin = 1.01042
vernier = 0.00173611
vernier = 0.00231481
vernier = 0.00115741
Gmin = 1.00852
vernier = 0.00154321
vernier = 0.000771604
Gmin = 1.00667
vernier = 0.00102881
vernier = 0.000514403
vernier = 0.00068587
Gmin = 1.00542
vernier = 0.000514403
vernier = 0.00068587
vernier = 0.000514402
Gmin = 1.00461
Gmin = 0
Gmin stepping failed

Starting source stepping with srcstepmethod=0
Source Step = 3.0303%
Source Step = 18.2765%
Source Step = 18.75%
Source Step = 19.2235%
Source Step = 19.697%
Source Step = 20.1705%
vernier = 0.0234375
Source Step = 20.6676%
Source Step = 21.3778%
Source Step = 22.0881%
Source Step = 22.7983%
Source Step = 23.5085%
Source Step = 24.2188%
vernier = 0.0351563
Source Step = 25.2841%
Source Step = 26.3494%
Source Step = 27.4148%
Source Step = 28.4801%
Source Step = 29.5455%
vernier = 0.0527344
Source Step = 31.0902%
Source Step = 32.6882%
Source Step = 34.2862%
Source Step = 35.8842%
Source Step = 37.4822%
vernier = 0.0791016
Source Step = 39.7195%
Source Step = 42.1165%
Source Step = 44.5135%
Source Step = 46.9105%
Source Step = 49.3075%
vernier = 0.118652
Source Step = 52.5435%
Source Step = 56.139%
Source Step = 59.7346%
Source Step = 63.3301%
Source Step = 66.9256%
vernier = 0.177979
Source Step = 71.5998%
Source Step = 76.9931%
Source Step = 82.3864%
Source Step = 87.7797%
Source Step = 93.1729%
vernier = 0.266968
Source Step = 99.9146%
Source stepping succeeded in finding the operating point.


Date: Sat Mar 12 13:33:03 2022
Total elapsed time: 0.160 seconds.

tnom = 27
temp = 27
method = trap
totiter = 7202
traniter = 0
tranpoints = 0
accept = 0
rejected = 0
matrix size = 12
fillins = 6
solver = Normal
Matrix Compiler1:      45 opcodes
Matrix Compiler2:      91 opcodes  0.2/[0.2]/0.3

